*SPEF "IEEE 1481-1999"
*DESIGN "test"
*DATE "March 6, 1996"
*VENDOR "Abiders, Inc."
*VERSION "V2000.09"
*DESIGN_FLOW "PIN_CAP NONE" "NAME_SCOPE LOCAL"
*DIVIDER .
*DELIMITER :
*BUS_DELIMITER []
*T_UNIT 1.00000 NS
*C_UNIT 1.00000 FF
*R_UNIT 1.00000 OHM
*L_UNIT 1.00000 HENRY

*POWER_NETS VDD
*GND_NETS VSS

/*
This is a multiline comment.
See, all the lines are comments.
*/

// Here is a single line comment

*NAME_MAP
*1 In[1]
*2 In[0]
*3 Out
*4 X1.In
*5 X1.Out
*6 X2.In
*7 X2.Out

*PORTS
*1 I
*2 I
*3 O
*4 I
*5 O
*6 I
*7 O

*D_NET *3 1

*CONN
*P *3 O *L 0
*I *4 I *L 0
*I *7 O *D InvX1
*N *3:1 1 1
*N *3:2 1 2
*N *3:3 2 1
*N *3:4 2 2

*CAP
1 *3:1 0.125
2 *3:2 0.625
3 *3:3 0.125
4 *3:4 0.125

*RES
1 *7 *3:1 0.01
2 *3:1 *3:2 239.21
3 *3:2 *3:3 345.101
4 *3:3 *4 0.01
5 *3:2 *3:4 121.43
6 *3:4 *3 0.01

*END


*D_NET Out2 0

*CONN
*P Out2 O *L 0
*I *5 O *L InvX1

*CAP

*RES
1 *5 Out2:1 0.01
2 Out2:1 Out2 0.01

*END